Version 4
SHEET 1 3556 680
WIRE 3200 0 3168 0
WIRE 3312 0 3280 0
WIRE 3344 0 3312 0
WIRE 3456 0 3424 0
WIRE 3168 32 3168 0
WIRE 3312 80 3312 0
WIRE 3328 80 3312 80
WIRE 3456 96 3456 0
WIRE 3456 96 3392 96
WIRE 3488 96 3456 96
WIRE 3200 112 3168 112
WIRE 3328 112 3280 112
WIRE 3168 128 3168 112
WIRE 3168 224 3168 208
FLAG 3488 96 out5
FLAG 3168 224 0
FLAG 3168 32 0
SYMBOL Opamps\\UniversalOpamp2 3360 96 R0
SYMATTR InstName U4
SYMBOL res 3296 96 R90
WINDOW 0 0 56 VBottom 2
WINDOW 3 32 56 VTop 2
SYMATTR InstName Rs
SYMATTR Value ""
SYMBOL Misc\\signal 3168 112 M0
SYMATTR InstName Vin
SYMATTR Value ""
SYMBOL res 3440 -16 R90
WINDOW 0 0 56 VBottom 2
WINDOW 3 32 56 VTop 2
SYMATTR InstName Rf
SYMATTR Value ""
SYMBOL res 3296 -16 R90
WINDOW 0 0 56 VBottom 2
WINDOW 3 32 56 VTop 2
SYMATTR InstName R1
SYMATTR Value ""
